# File generated by Flopy version 3.3.2 on 12/08/2020 at 15:45:54.
BEGIN griddata
  strt  LAYERED
    INTERNAL  FACTOR  1.0
         224.80000000     224.60000000     224.40000000     224.20000000     224.00000000     223.80000000     223.60000000     223.40000000     223.20000000     223.00000000     222.80000000     222.60000000     222.40000000     222.20000000     222.00000000     221.80000000     221.60000000     221.40000000     221.20000000     221.00000000
         220.80000000     220.60000000     220.40000000     220.20000000     220.00000000     219.80000000     219.60000000     219.40000000     219.20000000     219.00000000     218.80000000     218.60000000     218.40000000     218.20000000     218.00000000     217.80000000     217.60000000     217.40000000     217.20000000     217.00000000
         216.80000000     216.60000000     216.40000000     216.20000000     216.00000000     215.80000000     215.60000000     215.40000000     215.20000000     215.00000000     214.80000000     214.60000000     214.40000000     214.20000000     214.00000000     213.80000000     213.60000000     213.40000000     213.20000000     213.00000000
         212.80000000     212.60000000     212.40000000     212.20000000     212.00000000     211.80000000     211.60000000     211.40000000     211.20000000     211.00000000     210.80000000     210.60000000     210.40000000     210.20000000     210.00000000     209.80000000     209.60000000     209.40000000     209.20000000     209.00000000
         208.80000000     208.60000000     208.40000000     208.20000000     208.00000000     207.80000000     207.60000000     207.40000000     207.20000000     207.00000000     206.80000000     206.60000000     206.40000000     206.20000000     206.00000000     205.80000000     205.60000000     205.40000000     205.20000000     205.00000000
         204.80000000     204.60000000     204.40000000     204.20000000     204.00000000     203.80000000     203.60000000     203.40000000     203.20000000     203.00000000     202.80000000     202.60000000     202.40000000     202.20000000     202.00000000     201.80000000     201.60000000     201.40000000     201.20000000     201.00000000
         200.80000000     200.60000000     200.40000000     200.20000000     200.00000000     199.80000000     199.60000000     199.40000000     199.20000000     199.00000000     198.80000000     198.60000000     198.40000000     198.20000000     198.00000000     197.80000000     197.60000000     197.40000000     197.20000000     197.00000000
         196.80000000     196.60000000     196.40000000     196.20000000     196.00000000     195.80000000     195.60000000     195.40000000     195.20000000     195.00000000     194.80000000     194.60000000     194.40000000     194.20000000     194.00000000     193.80000000     193.60000000     193.40000000     193.20000000     193.00000000
         192.80000000     192.60000000     192.40000000     192.20000000     192.00000000     191.80000000     191.60000000     191.40000000     191.20000000     191.00000000     190.80000000     190.60000000     190.40000000     190.20000000     190.00000000     189.80000000     189.60000000     189.40000000     189.20000000     189.00000000
         188.80000000     188.60000000     188.40000000     188.20000000     188.00000000     187.80000000     187.60000000     187.40000000     187.20000000     187.00000000     186.80000000     186.60000000     186.40000000     186.20000000     186.00000000     185.80000000     185.60000000     185.40000000     185.20000000     185.00000000
         184.80000000     184.60000000     184.40000000     184.20000000     184.00000000     183.80000000     183.60000000     183.40000000     183.20000000     183.00000000     182.80000000     182.60000000     182.40000000     182.20000000     182.00000000     181.80000000     181.60000000     181.40000000     181.20000000     181.00000000
         180.80000000     180.60000000     180.40000000     180.20000000     180.00000000     179.80000000     179.60000000     179.40000000     179.20000000     179.00000000     178.80000000     178.60000000     178.40000000     178.20000000     178.00000000     177.80000000     177.60000000     177.40000000     177.20000000     177.00000000
         176.80000000     176.60000000     176.40000000     176.20000000     176.00000000     175.80000000     175.60000000     175.40000000     175.20000000     175.00000000     174.80000000     174.60000000     174.40000000     174.20000000     174.00000000     173.80000000     173.60000000     173.40000000     173.20000000     173.00000000
         172.80000000     172.60000000     172.40000000     172.20000000     172.00000000     171.80000000     171.60000000     171.40000000     171.20000000     171.00000000     170.80000000     170.60000000     170.40000000     170.20000000     170.00000000     169.80000000     169.60000000     169.40000000     169.20000000     169.00000000
         168.80000000     168.60000000     168.40000000     168.20000000     168.00000000     167.80000000     167.60000000     167.40000000     167.20000000     167.00000000     166.80000000     166.60000000     166.40000000     166.20000000     166.00000000     165.80000000     165.60000000     165.40000000     165.20000000     165.00000000
         164.80000000     164.60000000     164.40000000     164.20000000     164.00000000     163.80000000     163.60000000     163.40000000     163.20000000     163.00000000     162.80000000     162.60000000     162.40000000     162.20000000     162.00000000     161.80000000     161.60000000     161.40000000     161.20000000     161.00000000
         160.80000000     160.60000000     160.40000000     160.20000000     160.00000000     159.80000000     159.60000000     159.40000000     159.20000000     159.00000000     158.80000000     158.60000000     158.40000000     158.20000000     158.00000000     157.80000000     157.60000000     157.40000000     157.20000000     157.00000000
         156.80000000     156.60000000     156.40000000     156.20000000     156.00000000     155.80000000     155.60000000     155.40000000     155.20000000     155.00000000     154.80000000     154.60000000     154.40000000     154.20000000     154.00000000     153.80000000     153.60000000     153.40000000     153.20000000     153.00000000
         152.80000000     152.60000000     152.40000000     152.20000000     152.00000000     151.80000000     151.60000000     151.40000000     151.20000000     151.00000000     150.80000000     150.60000000     150.40000000     150.20000000     150.00000000     149.80000000     149.60000000     149.40000000     149.20000000     149.00000000
         148.80000000     148.60000000     148.40000000     148.20000000     148.00000000     147.80000000     147.60000000     147.40000000     147.20000000     147.00000000     146.80000000     146.60000000     146.40000000     146.20000000     146.00000000     145.80000000     145.60000000     145.40000000     145.20000000     145.00000000
         144.80000000     144.60000000     144.40000000     144.20000000     144.00000000     143.80000000     143.60000000     143.40000000     143.20000000     143.00000000     142.80000000     142.60000000     142.40000000     142.20000000     142.00000000     141.80000000     141.60000000     141.40000000     141.20000000     141.00000000
         140.80000000     140.60000000     140.40000000     140.20000000     140.00000000     139.80000000     139.60000000     139.40000000     139.20000000     139.00000000     138.80000000     138.60000000     138.40000000     138.20000000     138.00000000     137.80000000     137.60000000     137.40000000     137.20000000     137.00000000
         136.80000000     136.60000000     136.40000000     136.20000000     136.00000000     135.80000000     135.60000000     135.40000000     135.20000000     135.00000000     134.80000000     134.60000000     134.40000000     134.20000000     134.00000000     133.80000000     133.60000000     133.40000000     133.20000000     133.00000000
         132.80000000     132.60000000     132.40000000     132.20000000     132.00000000     131.80000000     131.60000000     131.40000000     131.20000000     131.00000000     130.80000000     130.60000000     130.40000000     130.20000000     130.00000000     129.80000000     129.60000000     129.40000000     129.20000000     129.00000000
         128.80000000     128.60000000     128.40000000     128.20000000     128.00000000     127.80000000     127.60000000     127.40000000     127.20000000     127.00000000     126.80000000     126.60000000     126.40000000     126.20000000     126.00000000     125.80000000     125.60000000     125.40000000     125.20000000     125.00000000
         124.80000000     124.60000000     124.40000000     124.20000000     124.00000000     123.80000000     123.60000000     123.40000000     123.20000000     123.00000000     122.80000000     122.60000000     122.40000000     122.20000000     122.00000000     121.80000000     121.60000000     121.40000000     121.20000000     121.00000000
         120.80000000     120.60000000     120.40000000     120.20000000     120.00000000     119.80000000     119.60000000     119.40000000     119.20000000     119.00000000     118.80000000     118.60000000     118.40000000     118.20000000     118.00000000     117.80000000     117.60000000     117.40000000     117.20000000     117.00000000
         116.80000000     116.60000000     116.40000000     116.20000000     116.00000000     115.80000000     115.60000000     115.40000000     115.20000000     115.00000000     114.80000000     114.60000000     114.40000000     114.20000000     114.00000000     113.80000000     113.60000000     113.40000000     113.20000000     113.00000000
         112.80000000     112.60000000     112.40000000     112.20000000     112.00000000     111.80000000     111.60000000     111.40000000     111.20000000     111.00000000     110.80000000     110.60000000     110.40000000     110.20000000     110.00000000     109.80000000     109.60000000     109.40000000     109.20000000     109.00000000
         108.80000000     108.60000000     108.40000000     108.20000000     108.00000000     107.80000000     107.60000000     107.40000000     107.20000000     107.00000000     106.80000000     106.60000000     106.40000000     106.20000000     106.00000000     105.80000000     105.60000000     105.40000000     105.20000000     105.00000000
         104.80000000     104.60000000     104.40000000     104.20000000     104.00000000     103.80000000     103.60000000     103.40000000     103.20000000     103.00000000     102.80000000     102.60000000     102.40000000     102.20000000     102.00000000     101.80000000     101.60000000     101.40000000     101.20000000     101.00000000
         100.80000000     100.60000000     100.40000000     100.20000000     100.00000000      99.80000000      99.60000000      99.40000000      99.20000000      99.00000000      98.80000000      98.60000000      98.40000000      98.20000000      98.00000000      97.80000000      97.60000000      97.40000000      97.20000000      97.00000000
          96.80000000      96.60000000      96.40000000      96.20000000      96.00000000      95.80000000      95.60000000      95.40000000      95.20000000      95.00000000      94.80000000      94.60000000      94.40000000      94.20000000      94.00000000      93.80000000      93.60000000      93.40000000      93.20000000      93.00000000
          92.80000000      92.60000000      92.40000000      92.20000000      92.00000000      91.80000000      91.60000000      91.40000000      91.20000000      91.00000000      90.80000000      90.60000000      90.40000000      90.20000000      90.00000000      89.80000000      89.60000000      89.40000000      89.20000000      89.00000000
          88.80000000      88.60000000      88.40000000      88.20000000      88.00000000      87.80000000      87.60000000      87.40000000      87.20000000      87.00000000      86.80000000      86.60000000      86.40000000      86.20000000      86.00000000      85.80000000      85.60000000      85.40000000      85.20000000      85.00000000
          84.80000000      84.60000000      84.40000000      84.20000000      84.00000000      83.80000000      83.60000000      83.40000000      83.20000000      83.00000000      82.80000000      82.60000000      82.40000000      82.20000000      82.00000000      81.80000000      81.60000000      81.40000000      81.20000000      81.00000000
          80.80000000      80.60000000      80.40000000      80.20000000      80.00000000      79.80000000      79.60000000      79.40000000      79.20000000      79.00000000      78.80000000      78.60000000      78.40000000      78.20000000      78.00000000      77.80000000      77.60000000      77.40000000      77.20000000      77.00000000
          76.80000000      76.60000000      76.40000000      76.20000000      76.00000000      75.80000000      75.60000000      75.40000000      75.20000000      75.00000000      74.80000000      74.60000000      74.40000000      74.20000000      74.00000000      73.80000000      73.60000000      73.40000000      73.20000000      73.00000000
          72.80000000      72.60000000      72.40000000      72.20000000      72.00000000      71.80000000      71.60000000      71.40000000      71.20000000      71.00000000      70.80000000      70.60000000      70.40000000      70.20000000      70.00000000      69.80000000      69.60000000      69.40000000      69.20000000      69.00000000
          68.80000000      68.60000000      68.40000000      68.20000000      68.00000000      67.80000000      67.60000000      67.40000000      67.20000000      67.00000000      66.80000000      66.60000000      66.40000000      66.20000000      66.00000000      65.80000000      65.60000000      65.40000000      65.20000000      65.00000000
          64.80000000      64.60000000      64.40000000      64.20000000      64.00000000      63.80000000      63.60000000      63.40000000      63.20000000      63.00000000      62.80000000      62.60000000      62.40000000      62.20000000      62.00000000      61.80000000      61.60000000      61.40000000      61.20000000      61.00000000
          60.80000000      60.60000000      60.40000000      60.20000000      60.00000000      59.80000000      59.60000000      59.40000000      59.20000000      59.00000000      58.80000000      58.60000000      58.40000000      58.20000000      58.00000000      57.80000000      57.60000000      57.40000000      57.20000000      57.00000000
          56.80000000      56.60000000      56.40000000      56.20000000      56.00000000      55.80000000      55.60000000      55.40000000      55.20000000      55.00000000      54.80000000      54.60000000      54.40000000      54.20000000      54.00000000      53.80000000      53.60000000      53.40000000      53.20000000      53.00000000
          52.80000000      52.60000000      52.40000000      52.20000000      52.00000000      51.80000000      51.60000000      51.40000000      51.20000000      51.00000000      50.80000000      50.60000000      50.40000000      50.20000000      50.00000000      49.80000000      49.60000000      49.40000000      49.20000000      49.00000000
          48.80000000      48.60000000      48.40000000      48.20000000      48.00000000      47.80000000      47.60000000      47.40000000      47.20000000      47.00000000      46.80000000      46.60000000      46.40000000      46.20000000      46.00000000      45.80000000      45.60000000      45.40000000      45.20000000      45.00000000
          44.80000000      44.60000000      44.40000000      44.20000000      44.00000000      43.80000000      43.60000000      43.40000000      43.20000000      43.00000000      42.80000000      42.60000000      42.40000000      42.20000000      42.00000000      41.80000000      41.60000000      41.40000000      41.20000000      41.00000000
          40.80000000      40.60000000      40.40000000      40.20000000      40.00000000      39.80000000      39.60000000      39.40000000      39.20000000      39.00000000      38.80000000      38.60000000      38.40000000      38.20000000      38.00000000      37.80000000      37.60000000      37.40000000      37.20000000      37.00000000
          36.80000000      36.60000000      36.40000000      36.20000000      36.00000000      35.80000000      35.60000000      35.40000000      35.20000000      35.00000000      34.80000000      34.60000000      34.40000000      34.20000000      34.00000000      33.80000000      33.60000000      33.40000000      33.20000000      33.00000000
          32.80000000      32.60000000      32.40000000      32.20000000      32.00000000      31.80000000      31.60000000      31.40000000      31.20000000      31.00000000      30.80000000      30.60000000      30.40000000      30.20000000      30.00000000      29.80000000      29.60000000      29.40000000      29.20000000      29.00000000
          28.80000000      28.60000000      28.40000000      28.20000000      28.00000000      27.80000000      27.60000000      27.40000000      27.20000000      27.00000000      26.80000000      26.60000000      26.40000000      26.20000000      26.00000000      25.80000000      25.60000000      25.40000000      25.20000000      15.00000000
    INTERNAL  FACTOR  1.0
         224.80000000     224.60000000     224.40000000     224.20000000     224.00000000     223.80000000     223.60000000     223.40000000     223.20000000     223.00000000     222.80000000     222.60000000     222.40000000     222.20000000     222.00000000     221.80000000     221.60000000     221.40000000     221.20000000     221.00000000
         220.80000000     220.60000000     220.40000000     220.20000000     220.00000000     219.80000000     219.60000000     219.40000000     219.20000000     219.00000000     218.80000000     218.60000000     218.40000000     218.20000000     218.00000000     217.80000000     217.60000000     217.40000000     217.20000000     217.00000000
         216.80000000     216.60000000     216.40000000     216.20000000     216.00000000     215.80000000     215.60000000     215.40000000     215.20000000     215.00000000     214.80000000     214.60000000     214.40000000     214.20000000     214.00000000     213.80000000     213.60000000     213.40000000     213.20000000     213.00000000
         212.80000000     212.60000000     212.40000000     212.20000000     212.00000000     211.80000000     211.60000000     211.40000000     211.20000000     211.00000000     210.80000000     210.60000000     210.40000000     210.20000000     210.00000000     209.80000000     209.60000000     209.40000000     209.20000000     209.00000000
         208.80000000     208.60000000     208.40000000     208.20000000     208.00000000     207.80000000     207.60000000     207.40000000     207.20000000     207.00000000     206.80000000     206.60000000     206.40000000     206.20000000     206.00000000     205.80000000     205.60000000     205.40000000     205.20000000     205.00000000
         204.80000000     204.60000000     204.40000000     204.20000000     204.00000000     203.80000000     203.60000000     203.40000000     203.20000000     203.00000000     202.80000000     202.60000000     202.40000000     202.20000000     202.00000000     201.80000000     201.60000000     201.40000000     201.20000000     201.00000000
         200.80000000     200.60000000     200.40000000     200.20000000     200.00000000     199.80000000     199.60000000     199.40000000     199.20000000     199.00000000     198.80000000     198.60000000     198.40000000     198.20000000     198.00000000     197.80000000     197.60000000     197.40000000     197.20000000     197.00000000
         196.80000000     196.60000000     196.40000000     196.20000000     196.00000000     195.80000000     195.60000000     195.40000000     195.20000000     195.00000000     194.80000000     194.60000000     194.40000000     194.20000000     194.00000000     193.80000000     193.60000000     193.40000000     193.20000000     193.00000000
         192.80000000     192.60000000     192.40000000     192.20000000     192.00000000     191.80000000     191.60000000     191.40000000     191.20000000     191.00000000     190.80000000     190.60000000     190.40000000     190.20000000     190.00000000     189.80000000     189.60000000     189.40000000     189.20000000     189.00000000
         188.80000000     188.60000000     188.40000000     188.20000000     188.00000000     187.80000000     187.60000000     187.40000000     187.20000000     187.00000000     186.80000000     186.60000000     186.40000000     186.20000000     186.00000000     185.80000000     185.60000000     185.40000000     185.20000000     185.00000000
         184.80000000     184.60000000     184.40000000     184.20000000     184.00000000     183.80000000     183.60000000     183.40000000     183.20000000     183.00000000     182.80000000     182.60000000     182.40000000     182.20000000     182.00000000     181.80000000     181.60000000     181.40000000     181.20000000     181.00000000
         180.80000000     180.60000000     180.40000000     180.20000000     180.00000000     179.80000000     179.60000000     179.40000000     179.20000000     179.00000000     178.80000000     178.60000000     178.40000000     178.20000000     178.00000000     177.80000000     177.60000000     177.40000000     177.20000000     177.00000000
         176.80000000     176.60000000     176.40000000     176.20000000     176.00000000     175.80000000     175.60000000     175.40000000     175.20000000     175.00000000     174.80000000     174.60000000     174.40000000     174.20000000     174.00000000     173.80000000     173.60000000     173.40000000     173.20000000     173.00000000
         172.80000000     172.60000000     172.40000000     172.20000000     172.00000000     171.80000000     171.60000000     171.40000000     171.20000000     171.00000000     170.80000000     170.60000000     170.40000000     170.20000000     170.00000000     169.80000000     169.60000000     169.40000000     169.20000000     169.00000000
         168.80000000     168.60000000     168.40000000     168.20000000     168.00000000     167.80000000     167.60000000     167.40000000     167.20000000     167.00000000     166.80000000     166.60000000     166.40000000     166.20000000     166.00000000     165.80000000     165.60000000     165.40000000     165.20000000     165.00000000
         164.80000000     164.60000000     164.40000000     164.20000000     164.00000000     163.80000000     163.60000000     163.40000000     163.20000000     163.00000000     162.80000000     162.60000000     162.40000000     162.20000000     162.00000000     161.80000000     161.60000000     161.40000000     161.20000000     161.00000000
         160.80000000     160.60000000     160.40000000     160.20000000     160.00000000     159.80000000     159.60000000     159.40000000     159.20000000     159.00000000     158.80000000     158.60000000     158.40000000     158.20000000     158.00000000     157.80000000     157.60000000     157.40000000     157.20000000     157.00000000
         156.80000000     156.60000000     156.40000000     156.20000000     156.00000000     155.80000000     155.60000000     155.40000000     155.20000000     155.00000000     154.80000000     154.60000000     154.40000000     154.20000000     154.00000000     153.80000000     153.60000000     153.40000000     153.20000000     153.00000000
         152.80000000     152.60000000     152.40000000     152.20000000     152.00000000     151.80000000     151.60000000     151.40000000     151.20000000     151.00000000     150.80000000     150.60000000     150.40000000     150.20000000     150.00000000     149.80000000     149.60000000     149.40000000     149.20000000     149.00000000
         148.80000000     148.60000000     148.40000000     148.20000000     148.00000000     147.80000000     147.60000000     147.40000000     147.20000000     147.00000000     146.80000000     146.60000000     146.40000000     146.20000000     146.00000000     145.80000000     145.60000000     145.40000000     145.20000000     145.00000000
         144.80000000     144.60000000     144.40000000     144.20000000     144.00000000     143.80000000     143.60000000     143.40000000     143.20000000     143.00000000     142.80000000     142.60000000     142.40000000     142.20000000     142.00000000     141.80000000     141.60000000     141.40000000     141.20000000     141.00000000
         140.80000000     140.60000000     140.40000000     140.20000000     140.00000000     139.80000000     139.60000000     139.40000000     139.20000000     139.00000000     138.80000000     138.60000000     138.40000000     138.20000000     138.00000000     137.80000000     137.60000000     137.40000000     137.20000000     137.00000000
         136.80000000     136.60000000     136.40000000     136.20000000     136.00000000     135.80000000     135.60000000     135.40000000     135.20000000     135.00000000     134.80000000     134.60000000     134.40000000     134.20000000     134.00000000     133.80000000     133.60000000     133.40000000     133.20000000     133.00000000
         132.80000000     132.60000000     132.40000000     132.20000000     132.00000000     131.80000000     131.60000000     131.40000000     131.20000000     131.00000000     130.80000000     130.60000000     130.40000000     130.20000000     130.00000000     129.80000000     129.60000000     129.40000000     129.20000000     129.00000000
         128.80000000     128.60000000     128.40000000     128.20000000     128.00000000     127.80000000     127.60000000     127.40000000     127.20000000     127.00000000     126.80000000     126.60000000     126.40000000     126.20000000     126.00000000     125.80000000     125.60000000     125.40000000     125.20000000     125.00000000
         124.80000000     124.60000000     124.40000000     124.20000000     124.00000000     123.80000000     123.60000000     123.40000000     123.20000000     123.00000000     122.80000000     122.60000000     122.40000000     122.20000000     122.00000000     121.80000000     121.60000000     121.40000000     121.20000000     121.00000000
         120.80000000     120.60000000     120.40000000     120.20000000     120.00000000     119.80000000     119.60000000     119.40000000     119.20000000     119.00000000     118.80000000     118.60000000     118.40000000     118.20000000     118.00000000     117.80000000     117.60000000     117.40000000     117.20000000     117.00000000
         116.80000000     116.60000000     116.40000000     116.20000000     116.00000000     115.80000000     115.60000000     115.40000000     115.20000000     115.00000000     114.80000000     114.60000000     114.40000000     114.20000000     114.00000000     113.80000000     113.60000000     113.40000000     113.20000000     113.00000000
         112.80000000     112.60000000     112.40000000     112.20000000     112.00000000     111.80000000     111.60000000     111.40000000     111.20000000     111.00000000     110.80000000     110.60000000     110.40000000     110.20000000     110.00000000     109.80000000     109.60000000     109.40000000     109.20000000     109.00000000
         108.80000000     108.60000000     108.40000000     108.20000000     108.00000000     107.80000000     107.60000000     107.40000000     107.20000000     107.00000000     106.80000000     106.60000000     106.40000000     106.20000000     106.00000000     105.80000000     105.60000000     105.40000000     105.20000000     105.00000000
         104.80000000     104.60000000     104.40000000     104.20000000     104.00000000     103.80000000     103.60000000     103.40000000     103.20000000     103.00000000     102.80000000     102.60000000     102.40000000     102.20000000     102.00000000     101.80000000     101.60000000     101.40000000     101.20000000     101.00000000
         100.80000000     100.60000000     100.40000000     100.20000000     100.00000000      99.80000000      99.60000000      99.40000000      99.20000000      99.00000000      98.80000000      98.60000000      98.40000000      98.20000000      98.00000000      97.80000000      97.60000000      97.40000000      97.20000000      97.00000000
          96.80000000      96.60000000      96.40000000      96.20000000      96.00000000      95.80000000      95.60000000      95.40000000      95.20000000      95.00000000      94.80000000      94.60000000      94.40000000      94.20000000      94.00000000      93.80000000      93.60000000      93.40000000      93.20000000      93.00000000
          92.80000000      92.60000000      92.40000000      92.20000000      92.00000000      91.80000000      91.60000000      91.40000000      91.20000000      91.00000000      90.80000000      90.60000000      90.40000000      90.20000000      90.00000000      89.80000000      89.60000000      89.40000000      89.20000000      89.00000000
          88.80000000      88.60000000      88.40000000      88.20000000      88.00000000      87.80000000      87.60000000      87.40000000      87.20000000      87.00000000      86.80000000      86.60000000      86.40000000      86.20000000      86.00000000      85.80000000      85.60000000      85.40000000      85.20000000      85.00000000
          84.80000000      84.60000000      84.40000000      84.20000000      84.00000000      83.80000000      83.60000000      83.40000000      83.20000000      83.00000000      82.80000000      82.60000000      82.40000000      82.20000000      82.00000000      81.80000000      81.60000000      81.40000000      81.20000000      81.00000000