# File generated by Flopy version 3.3.2 on 12/08/2020 at 15:45:54.
BEGIN options
  FIXED_CELL
END options

BEGIN dimensions
  MAXBOUND  2000
END dimensions

BEGIN period  1
  1 1 1  3.17097920E-09
  1 1 2  3.17097920E-09
  1 1 3  3.17097920E-09
  1 1 4  3.17097920E-09
  1 1 5  3.17097920E-09
  1 1 6  3.17097920E-09
  1 1 7  3.17097920E-09
  1 1 8  3.17097920E-09
  1 1 9  3.17097920E-09
  1 1 10  3.17097920E-09
  1 1 11  3.17097920E-09
  1 1 12  3.17097920E-09
  1 1 13  3.17097920E-09
  1 1 14  3.17097920E-09
  1 1 15  3.17097920E-09
  1 1 16  3.17097920E-09
  1 1 17  3.17097920E-09
  1 1 18  3.17097920E-09
  1 1 19  3.17097920E-09
  1 1 20  3.17097920E-09
  1 1 21  3.17097920E-09
  1 1 22  3.17097920E-09
  1 1 23  3.17097920E-09
  1 1 24  3.17097920E-09
  1 1 25  3.17097920E-09
  1 1 26  3.17097920E-09
  1 1 27  3.17097920E-09
  1 1 28  3.17097920E-09
  1 1 29  3.17097920E-09
  1 1 30  3.17097920E-09
  1 1 31  3.17097920E-09
  1 1 32  3.17097920E-09
  1 1 33  3.17097920E-09
  1 1 34  3.17097920E-09
  1 1 35  3.17097920E-09
  1 1 36  3.17097920E-09
  1 1 37  3.17097920E-09
  1 1 38  3.17097920E-09
  1 1 39  3.17097920E-09
  1 1 40  3.17097920E-09
  1 1 41  3.17097920E-09
  1 1 42  3.17097920E-09
  1 1 43  3.17097920E-09
  1 1 44  3.17097920E-09
  1 1 45  3.17097920E-09
  1 1 46  3.17097920E-09
  1 1 47  3.17097920E-09
  1 1 48  3.17097920E-09
  1 1 49  3.17097920E-09
  1 1 50  3.17097920E-09
  1 1 51  3.17097920E-09
  1 1 52  3.17097920E-09
  1 1 53  3.17097920E-09
  1 1 54  3.17097920E-09
  1 1 55  3.17097920E-09
  1 1 56  3.17097920E-09
  1 1 57  3.17097920E-09
  1 1 58  3.17097920E-09
  1 1 59  3.17097920E-09
  1 1 60  3.17097920E-09
  1 1 61  3.17097920E-09
  1 1 62  3.17097920E-09
  1 1 63  3.17097920E-09
  1 1 64  3.17097920E-09
  1 1 65  3.17097920E-09
  1 1 66  3.17097920E-09
  1 1 67  3.17097920E-09
  1 1 68  3.17097920E-09
  1 1 69  3.17097920E-09
  1 1 70  3.17097920E-09
  1 1 71  3.17097920E-09
  1 1 72  3.17097920E-09
  1 1 73  3.17097920E-09
  1 1 74  3.17097920E-09
  1 1 75  3.17097920E-09
  1 1 76  3.17097920E-09
  1 1 77  3.17097920E-09
  1 1 78  3.17097920E-09
  1 1 79  3.17097920E-09
  1 1 80  3.17097920E-09
  1 1 81  3.17097920E-09
  1 1 82  3.17097920E-09
  1 1 83  3.17097920E-09
  1 1 84  3.17097920E-09
  1 1 85  3.17097920E-09
  1 1 86  3.17097920E-09
  1 1 87  3.17097920E-09
  1 1 88  3.17097920E-09
  1 1 89  3.17097920E-09
  1 1 90  3.17097920E-09
  1 1 91  3.17097920E-09
  1 1 92  3.17097920E-09
  1 1 93  3.17097920E-09
  1 1 94  3.17097920E-09
  1 1 95  3.17097920E-09
  1 1 96  3.17097920E-09
  1 1 97  3.17097920E-09
  1 1 98  3.17097920E-09
  1 1 99  3.17097920E-09
  1 1 100  3.17097920E-09
  1 1 101  3.17097920E-09
  1 1 102  3.17097920E-09
  1 1 103  3.17097920E-09
  1 1 104  3.17097920E-09
  1 1 105  3.17097920E-09
  1 1 106  3.17097920E-09
  1 1 107  3.17097920E-09
  1 1 108  3.17097920E-09
  1 1 109  3.17097920E-09
  1 1 110  3.17097920E-09
  1 1 111  3.17097920E-09
  1 1 112  3.17097920E-09
  1 1 113  3.17097920E-09
  1 1 114  3.17097920E-09
  1 1 115  3.17097920E-09
  1 1 116  3.17097920E-09
  1 1 117  3.17097920E-09
  1 1 118  3.17097920E-09
  1 1 119  3.17097920E-09
  1 1 120  3.17097920E-09
  1 1 121  3.17097920E-09
  1 1 122  3.17097920E-09
  1 1 123  3.17097920E-09
  1 1 124  3.17097920E-09
  1 1 125  3.17097920E-09
  1 1 126  3.17097920E-09
  1 1 127  3.17097920E-09
  1 1 128  3.17097920E-09
  1 1 129  3.17097920E-09
  1 1 130  3.17097920E-09
  1 1 131  3.17097920E-09
  1 1 132  3.17097920E-09
  1 1 133  3.17097920E-09
  1 1 134  3.17097920E-09
  1 1 135  3.17097920E-09
  1 1 136  3.17097920E-09
  1 1 137  3.17097920E-09
  1 1 138  3.17097920E-09
  1 1 139  3.17097920E-09
  1 1 140  3.17097920E-09
  1 1 141  3.17097920E-09
  1 1 142  3.17097920E-09
  1 1 143  3.17097920E-09
  1 1 144  3.17097920E-09
  1 1 145  3.17097920E-09
  1 1 146  3.17097920E-09
  1 1 147  3.17097920E-09
  1 1 148  3.17097920E-09
  1 1 149  3.17097920E-09
  1 1 150  3.17097920E-09
  1 1 151  3.17097920E-09
  1 1 152  3.17097920E-09
  1 1 153  3.17097920E-09
  1 1 154  3.17097920E-09
  1 1 155  3.17097920E-09
  1 1 156  3.17097920E-09
  1 1 157  3.17097920E-09
  1 1 158  3.17097920E-09
  1 1 159  3.17097920E-09
  1 1 160  3.17097920E-09
  1 1 161  3.17097920E-09
  1 1 162  3.17097920E-09
  1 1 163  3.17097920E-09
  1 1 164  3.17097920E-09
  1 1 165  3.17097920E-09
  1 1 166  3.17097920E-09
  1 1 167  3.17097920E-09
  1 1 168  3.17097920E-09
  1 1 169  3.17097920E-09
  1 1 170  3.17097920E-09
  1 1 171  3.17097920E-09
  1 1 172  3.17097920E-09
  1 1 173  3.17097920E-09
  1 1 174  3.17097920E-09
  1 1 175  3.17097920E-09
  1 1 176  3.17097920E-09
  1 1 177  3.17097920E-09
  1 1 178  3.17097920E-09
  1 1 179  3.17097920E-09
  1 1 180  3.17097920E-09
  1 1 181  3.17097920E-09
  1 1 182  3.17097920E-09
  1 1 183  3.17097920E-09
  1 1 184  3.17097920E-09
  1 1 185  3.17097920E-09
  1 1 186  3.17097920E-09
  1 1 187  3.17097920E-09
  1 1 188  3.17097920E-09
  1 1 189  3.17097920E-09
  1 1 190  3.17097920E-09
  1 1 191  3.17097920E-09
  1 1 192  3.17097920E-09
  1 1 193  3.17097920E-09
  1 1 194  3.17097920E-09
  1 1 195  3.17097920E-09
  1 1 196  3.17097920E-09
  1 1 197  3.17097920E-09
  1 1 198  3.17097920E-09
  1 1 199  3.17097920E-09
  1 1 200  3.17097920E-09
  1 1 201  3.17097920E-09
  1 1 202  3.17097920E-09
  1 1 203  3.17097920E-09
  1 1 204  3.17097920E-09
  1 1 205  3.17097920E-09
  1 1 206  3.17097920E-09
  1 1 207  3.17097920E-09
  1 1 208  3.17097920E-09
  1 1 209  3.17097920E-09
  1 1 210  3.17097920E-09
  1 1 211  3.17097920E-09
  1 1 212  3.17097920E-09
  1 1 213  3.17097920E-09
  1 1 214  3.17097920E-09
  1 1 215  3.17097920E-09
  1 1 216  3.17097920E-09
  1 1 217  3.17097920E-09
  1 1 218  3.17097920E-09
  1 1 219  3.17097920E-09
  1 1 220  3.17097920E-09
  1 1 221  3.17097920E-09
  1 1 222  3.17097920E-09
  1 1 223  3.17097920E-09
  1 1 224  3.17097920E-09
  1 1 225  3.17097920E-09
  1 1 226  3.17097920E-09
  1 1 227  3.17097920E-09
  1 1 228  3.17097920E-09
  1 1 229  3.17097920E-09
  1 1 230  3.17097920E-09
  1 1 231  3.17097920E-09
  1 1 232  3.17097920E-09
  1 1 233  3.17097920E-09
  1 1 234  3.17097920E-09
  1 1 235  3.17097920E-09
  1 1 236  3.17097920E-09
  1 1 237  3.17097920E-09
  1 1 238  3.17097920E-09
  1 1 239  3.17097920E-09
  1 1 240  3.17097920E-09
  1 1 241  3.17097920E-09
  1 1 242  3.17097920E-09
  1 1 243  3.17097920E-09
  1 1 244  3.17097920E-09
  1 1 245  3.17097920E-09
  1 1 246  3.17097920E-09
  1 1 247  3.17097920E-09
  1 1 248  3.17097920E-09
  1 1 249  3.17097920E-09
  1 1 250  3.17097920E-09
  1 1 251  3.17097920E-09
  1 1 252  3.17097920E-09
  1 1 253  3.17097920E-09
  1 1 254  3.17097920E-09
  1 1 255  3.17097920E-09
  1 1 256  3.17097920E-09
  1 1 257  3.17097920E-09
  1 1 258  3.17097920E-09
  1 1 259  3.17097920E-09
  1 1 260  3.17097920E-09
  1 1 261  3.17097920E-09
  1 1 262  3.17097920E-09
  1 1 263  3.17097920E-09
  1 1 264  3.17097920E-09
  1 1 265  3.17097920E-09
  1 1 266  3.17097920E-09
  1 1 267  3.17097920E-09
  1 1 268  3.17097920E-09
  1 1 269  3.17097920E-09
  1 1 270  3.17097920E-09
  1 1 271  3.17097920E-09
  1 1 272  3.17097920E-09
  1 1 273  3.17097920E-09
  1 1 274  3.17097920E-09
  1 1 275  3.17097920E-09
  1 1 276  3.17097920E-09
  1 1 277  3.17097920E-09
  1 1 278  3.17097920E-09
  1 1 279  3.17097920E-09
  1 1 280  3.17097920E-09
  1 1 281  3.17097920E-09
  1 1 282  3.17097920E-09
  1 1 283  3.17097920E-09
  1 1 284  3.17097920E-09
  1 1 285  3.17097920E-09
  1 1 286  3.17097920E-09
  1 1 287  3.17097920E-09
  1 1 288  3.17097920E-09
  1 1 289  3.17097920E-09
  1 1 290  3.17097920E-09
  1 1 291  3.17097920E-09
  1 1 292  3.17097920E-09
  1 1 293  3.17097920E-09
  1 1 294  3.17097920E-09
  1 1 295  3.17097920E-09
  1 1 296  3.17097920E-09
  1 1 297  3.17097920E-09
  1 1 298  3.17097920E-09
  1 1 299  3.17097920E-09
  1 1 300  3.17097920E-09
  1 1 301  3.17097920E-09
  1 1 302  3.17097920E-09
  1 1 303  3.17097920E-09
  1 1 304  3.17097920E-09
  1 1 305  3.17097920E-09
  1 1 306  3.17097920E-09
  1 1 307  3.17097920E-09
  1 1 308  3.17097920E-09
  1 1 309  3.17097920E-09
  1 1 310  3.17097920E-09
  1 1 311  3.17097920E-09
  1 1 312  3.17097920E-09
  1 1 313  3.17097920E-09
  1 1 314  3.17097920E-09
  1 1 315  3.17097920E-09
  1 1 316  3.17097920E-09
  1 1 317  3.17097920E-09
  1 1 318  3.17097920E-09
  1 1 319  3.17097920E-09
  1 1 320  3.17097920E-09
  1 1 321  3.17097920E-09
  1 1 322  3.17097920E-09
  1 1 323  3.17097920E-09
  1 1 324  3.17097920E-09
  1 1 325  3.17097920E-09
  1 1 326  3.17097920E-09
  1 1 327  3.17097920E-09
  1 1 328  3.17097920E-09
  1 1 329  3.17097920E-09
  1 1 330  3.17097920E-09
  1 1 331  3.17097920E-09
  1 1 332  3.17097920E-09
  1 1 333  3.17097920E-09
  1 1 334  3.17097920E-09
  1 1 335  3.17097920E-09
  1 1 336  3.17097920E-09
  1 1 337  3.17097920E-09
  1 1 338  3.17097920E-09
  1 1 339  3.17097920E-09
  1 1 340  3.17097920E-09
  1 1 341  3.17097920E-09
  1 1 342  3.17097920E-09
  1 1 343  3.17097920E-09
  1 1 344  3.17097920E-09
  1 1 345  3.17097920E-09
  1 1 346  3.17097920E-09
  1 1 347  3.17097920E-09
  1 1 348  3.17097920E-09
  1 1 349  3.17097920E-09
  1 1 350  3.17097920E-09
  1 1 351  3.17097920E-09
  1 1 352  3.17097920E-09
  1 1 353  3.17097920E-09
  1 1 354  3.17097920E-09
  1 1 355  3.17097920E-09
  1 1 356  3.17097920E-09
  1 1 357  3.17097920E-09
  1 1 358  3.17097920E-09
  1 1 359  3.17097920E-09
  1 1 360  3.17097920E-09
  1 1 361  3.17097920E-09
  1 1 362  3.17097920E-09
  1 1 363  3.17097920E-09
  1 1 364  3.17097920E-09
  1 1 365  3.17097920E-09
  1 1 366  3.17097920E-09
  1 1 367  3.17097920E-09
  1 1 368  3.17097920E-09
  1 1 369  3.17097920E-09
  1 1 370  3.17097920E-09
  1 1 371  3.17097920E-09
  1 1 372  3.17097920E-09
  1 1 373  3.17097920E-09
  1 1 374  3.17097920E-09
  1 1 375  3.17097920E-09
  1 1 376  3.17097920E-09
  1 1 377  3.17097920E-09
  1 1 378  3.17097920E-09
  1 1 379  3.17097920E-09
  1 1 380  3.17097920E-09
  1 1 381  3.17097920E-09
  1 1 382  3.17097920E-09
  1 1 383  3.17097920E-09
  1 1 384  3.17097920E-09
  1 1 385  3.17097920E-09
  1 1 386  3.17097920E-09
  1 1 387  3.17097920E-09
  1 1 388  3.17097920E-09
  1 1 389  3.17097920E-09
  1 1 390  3.17097920E-09
  1 1 391  3.17097920E-09
  1 1 392  3.17097920E-09
  1 1 393  3.17097920E-09
  1 1 394  3.17097920E-09
  1 1 395  3.17097920E-09
  1 1 396  3.17097920E-09
  1 1 397  3.17097920E-09
  1 1 398  3.17097920E-09
  1 1 399  3.17097920E-09
  1 1 400  3.17097920E-09
  1 1 401  3.17097920E-09
  1 1 402  3.17097920E-09
  1 1 403  3.17097920E-09
  1 1 404  3.17097920E-09
  1 1 405  3.17097920E-09
  1 1 406  3.17097920E-09
  1 1 407  3.17097920E-09
  1 1 408  3.17097920E-09
  1 1 409  3.17097920E-09
  1 1 410  3.17097920E-09
  1 1 411  3.17097920E-09
  1 1 412  3.17097920E-09
  1 1 413  3.17097920E-09
  1 1 414  3.17097920E-09
  1 1 415  3.17097920E-09
  1 1 416  3.17097920E-09
  1 1 417  3.17097920E-09
  1 1 418  3.17097920E-09
  1 1 419  3.17097920E-09
  1 1 420  3.17097920E-09
  1 1 421  3.17097920E-09
  1 1 422  3.17097920E-09
  1 1 423  3.17097920E-09
  1 1 424  3.17097920E-09
  1 1 425  3.17097920E-09
  1 1 426  3.17097920E-09
  1 1 427  3.17097920E-09
  1 1 428  3.17097920E-09
  1 1 429  3.17097920E-09
  1 1 430  3.17097920E-09
  1 1 431  3.17097920E-09
  1 1 432  3.17097920E-09
  1 1 433  3.17097920E-09
  1 1 434  3.17097920E-09
  1 1 435  3.17097920E-09
  1 1 436  3.17097920E-09
  1 1 437  3.17097920E-09
  1 1 438  3.17097920E-09
  1 1 439  3.17097920E-09
  1 1 440  3.17097920E-09
  1 1 441  3.17097920E-09
  1 1 442  3.17097920E-09
  1 1 443  3.17097920E-09
  1 1 444  3.17097920E-09
  1 1 445  3.17097920E-09
  1 1 446  3.17097920E-09
  1 1 447  3.17097920E-09
  1 1 448  3.17097920E-09
  1 1 449  3.17097920E-09
  1 1 450  3.17097920E-09
  1 1 451  3.17097920E-09
  1 1 452  3.17097920E-09
  1 1 453  3.17097920E-09
  1 1 454  3.17097920E-09
  1 1 455  3.17097920E-09
  1 1 456  3.17097920E-09
  1 1 457  3.17097920E-09
  1 1 458  3.17097920E-09
  1 1 459  3.17097920E-09
  1 1 460  3.17097920E-09
  1 1 461  3.17097920E-09
  1 1 462  3.17097920E-09
  1 1 463  3.17097920E-09
  1 1 464  3.17097920E-09
  1 1 465  3.17097920E-09
  1 1 466  3.17097920E-09
  1 1 467  3.17097920E-09
  1 1 468  3.17097920E-09
  1 1 469  3.17097920E-09
  1 1 470  3.17097920E-09
  1 1 471  3.17097920E-09
  1 1 472  3.17097920E-09
  1 1 473  3.17097920E-09
  1 1 474  3.17097920E-09
  1 1 475  3.17097920E-09
  1 1 476  3.17097920E-09
  1 1 477  3.17097920E-09
  1 1 478  3.17097920E-09
  1 1 479  3.17097920E-09
  1 1 480  3.17097920E-09
  1 1 481  3.17097920E-09
  1 1 482  3.17097920E-09
  1 1 483  3.17097920E-09
  1 1 484  3.17097920E-09
  1 1 485  3.17097920E-09
  1 1 486  3.17097920E-09
  1 1 487  3.17097920E-09
  1 1 488  3.17097920E-09
  1 1 489  3.17097920E-09
  1 1 490  3.17097920E-09
  1 1 491  3.17097920E-09
  1 1 492  3.17097920E-09
  1 1 493  3.17097920E-09
  1 1 494  3.17097920E-09
  1 1 495  3.17097920E-09
  1 1 496  3.17097920E-09
  1 1 497  3.17097920E-09
  1 1 498  3.17097920E-09
  1 1 499  3.17097920E-09
  1 1 500  3.17097920E-09
  1 1 501  3.17097920E-09
  1 1 502  3.17097920E-09
  1 1 503  3.17097920E-09
  1 1 504  3.17097920E-09
  1 1 505  3.17097920E-09
  1 1 506  3.17097920E-09
  1 1 507  3.17097920E-09
  1 1 508  3.17097920E-09
  1 1 509  3.17097920E-09
  1 1 510  3.17097920E-09
  1 1 511  3.17097920E-09
  1 1 512  3.17097920E-09
  1 1 513  3.17097920E-09
  1 1 514  3.17097920E-09
  1 1 515  3.17097920E-09
  1 1 516  3.17097920E-09
  1 1 517  3.17097920E-09
  1 1 518  3.17097920E-09
  1 1 519  3.17097920E-09
  1 1 520  3.17097920E-09
  1 1 521  3.17097920E-09
  1 1 522  3.17097920E-09
  1 1 523  3.17097920E-09
  1 1 524  3.17097920E-09
  1 1 525  3.17097920E-09
  1 1 526  3.17097920E-09
  1 1 527  3.17097920E-09
  1 1 528  3.17097920E-09
  1 1 529  3.17097920E-09
  1 1 530  3.17097920E-09
  1 1 531  3.17097920E-09
  1 1 532  3.17097920E-09
  1 1 533  3.17097920E-09
  1 1 534  3.17097920E-09
  1 1 535  3.17097920E-09
  1 1 536  3.17097920E-09
  1 1 537  3.17097920E-09
  1 1 538  3.17097920E-09
  1 1 539  3.17097920E-09
  1 1 540  3.17097920E-09
  1 1 541  3.17097920E-09
  1 1 542  3.17097920E-09
  1 1 543  3.17097920E-09
  1 1 544  3.17097920E-09
  1 1 545  3.17097920E-09
  1 1 546  3.17097920E-09
  1 1 547  3.17097920E-09
  1 1 548  3.17097920E-09
  1 1 549  3.17097920E-09
  1 1 550  3.17097920E-09
  1 1 551  3.17097920E-09
  1 1 552  3.17097920E-09
  1 1 553  3.17097920E-09
  1 1 554  3.17097920E-09
  1 1 555  3.17097920E-09
  1 1 556  3.17097920E-09
  1 1 557  3.17097920E-09
  1 1 558  3.17097920E-09
  1 1 559  3.17097920E-09
  1 1 560  3.17097920E-09
  1 1 561  3.17097920E-09
  1 1 562  3.17097920E-09
  1 1 563  3.17097920E-09
  1 1 564  3.17097920E-09
  1 1 565  3.17097920E-09
  1 1 566  3.17097920E-09
  1 1 567  3.17097920E-09
  1 1 568  3.17097920E-09
  1 1 569  3.17097920E-09
  1 1 570  3.17097920E-09
  1 1 571  3.17097920E-09
  1 1 572  3.17097920E-09
  1 1 573  3.17097920E-09
  1 1 574  3.17097920E-09
  1 1 575  3.17097920E-09
  1 1 576  3.17097920E-09
  1 1 577  3.17097920E-09
  1 1 578  3.17097920E-09
  1 1 579  3.17097920E-09
  1 1 580  3.17097920E-09
  1 1 581  3.17097920E-09
  1 1 582  3.17097920E-09
  1 1 583  3.17097920E-09
  1 1 584  3.17097920E-09
  1 1 585  3.17097920E-09
  1 1 586  3.17097920E-09
  1 1 587  3.17097920E-09
  1 1 588  3.17097920E-09
  1 1 589  3.17097920E-09
  1 1 590  3.17097920E-09
  1 1 591  3.17097920E-09
  1 1 592  3.17097920E-09
  1 1 593  3.17097920E-09
  1 1 594  3.17097920E-09
  1 1 595  3.17097920E-09
  1 1 596  3.17097920E-09
  1 1 597  3.17097920E-09
  1 1 598  3.17097920E-09
  1 1 599  3.17097920E-09
  1 1 600  3.17097920E-09
  1 1 601  3.17097920E-09
  1 1 602  3.17097920E-09
  1 1 603  3.17097920E-09
  1 1 604  3.17097920E-09
  1 1 605  3.17097920E-09
  1 1 606  3.17097920E-09
  1 1 607  3.17097920E-09
  1 1 608  3.17097920E-09
  1 1 609  3.17097920E-09
  1 1 610  3.17097920E-09
  1 1 611  3.17097920E-09
  1 1 612  3.17097920E-09
  1 1 613  3.17097920E-09
  1 1 614  3.17097920E-09
  1 1 615  3.17097920E-09
  1 1 616  3.17097920E-09
  1 1 617  3.17097920E-09
  1 1 618  3.17097920E-09
  1 1 619  3.17097920E-09
  1 1 620  3.17097920E-09
  1 1 621  3.17097920E-09
  1 1 622  3.17097920E-09
  1 1 623  3.17097920E-09
  1 1 624  3.17097920E-09
  1 1 625  3.17097920E-09
  1 1 626  3.17097920E-09
  1 1 627  3.17097920E-09
  1 1 628  3.17097920E-09
  1 1 629  3.17097920E-09
  1 1 630  3.17097920E-09
  1 1 631  3.17097920E-09
  1 1 632  3.17097920E-09
  1 1 633  3.17097920E-09
  1 1 634  3.17097920E-09
  1 1 635  3.17097920E-09
  1 1 636  3.17097920E-09
  1 1 637  3.17097920E-09
  1 1 638  3.17097920E-09
  1 1 639  3.17097920E-09
  1 1 640  3.17097920E-09
  1 1 641  3.17097920E-09
  1 1 642  3.17097920E-09
  1 1 643  3.17097920E-09
  1 1 644  3.17097920E-09
  1 1 645  3.17097920E-09
  1 1 646  3.17097920E-09
  1 1 647  3.17097920E-09
  1 1 648  3.17097920E-09
  1 1 649  3.17097920E-09
  1 1 650  3.17097920E-09
  1 1 651  3.17097920E-09
  1 1 652  3.17097920E-09
  1 1 653  3.17097920E-09
  1 1 654  3.17097920E-09
  1 1 655  3.17097920E-09
  1 1 656  3.17097920E-09
  1 1 657  3.17097920E-09
  1 1 658  3.17097920E-09
  1 1 659  3.17097920E-09
  1 1 660  3.17097920E-09
  1 1 661  3.17097920E-09
  1 1 662  3.17097920E-09
  1 1 663  3.17097920E-09
  1 1 664  3.17097920E-09
  1 1 665  3.17097920E-09
  1 1 666  3.17097920E-09
  1 1 667  3.17097920E-09
  1 1 668  3.17097920E-09
  1 1 669  3.17097920E-09
  1 1 670  3.17097920E-09
  1 1 671  3.17097920E-09
  1 1 672  3.17097920E-09
  1 1 673  3.17097920E-09
  1 1 674  3.17097920E-09
  1 1 675  3.17097920E-09
  1 1 676  3.17097920E-09
  1 1 677  3.17097920E-09
  1 1 678  3.17097920E-09
  1 1 679  3.17097920E-09
  1 1 680  3.17097920E-09
  1 1 681  3.17097920E-09
  1 1 682  3.17097920E-09
  1 1 683  3.17097920E-09
  1 1 684  3.17097920E-09
  1 1 685  3.17097920E-09
  1 1 686  3.17097920E-09
  1 1 687  3.17097920E-09
  1 1 688  3.17097920E-09
  1 1 689  3.17097920E-09
  1 1 690  3.17097920E-09
  1 1 691  3.17097920E-09
  1 1 692  3.17097920E-09
  1 1 693  3.17097920E-09
  1 1 694  3.17097920E-09
  1 1 695  3.17097920E-09
  1 1 696  3.17097920E-09
  1 1 697  3.17097920E-09
  1 1 698  3.17097920E-09
  1 1 699  3.17097920E-09
  1 1 700  3.17097920E-09
  1 1 701  3.17097920E-09
  1 1 702  3.17097920E-09
  1 1 703  3.17097920E-09
  1 1 704  3.17097920E-09
  1 1 705  3.17097920E-09
  1 1 706  3.17097920E-09
  1 1 707  3.17097920E-09
  1 1 708  3.17097920E-09
  1 1 709  3.17097920E-09
  1 1 710  3.17097920E-09
  1 1 711  3.17097920E-09
  1 1 712  3.17097920E-09
  1 1 713  3.17097920E-09
  1 1 714  3.17097920E-09
  1 1 715  3.17097920E-09
  1 1 716  3.17097920E-09
  1 1 717  3.17097920E-09
  1 1 718  3.17097920E-09
  1 1 719  3.17097920E-09
  1 1 720  3.17097920E-09
  1 1 721  3.17097920E-09
  1 1 722  3.17097920E-09
  1 1 723  3.17097920E-09
  1 1 724  3.17097920E-09
  1 1 725  3.17097920E-09
  1 1 726  3.17097920E-09
  1 1 727  3.17097920E-09
  1 1 728  3.17097920E-09
  1 1 729  3.17097920E-09
  1 1 730  3.17097920E-09
  1 1 731  3.17097920E-09
  1 1 732  3.17097920E-09
  1 1 733  3.17097920E-09
  1 1 734  3.17097920E-09
  1 1 735  3.17097920E-09
  1 1 736  3.17097920E-09
  1 1 737  3.17097920E-09
  1 1 738  3.17097920E-09
  1 1 739  3.17097920E-09
  1 1 740  3.17097920E-09
  1 1 741  3.17097920E-09
  1 1 742  3.17097920E-09
  1 1 743  3.17097920E-09
  1 1 744  3.17097920E-09
  1 1 745  3.17097920E-09
  1 1 746  3.17097920E-09
  1 1 747  3.17097920E-09
  1 1 748  3.17097920E-09
  1 1 749  3.17097920E-09
  1 1 750  3.17097920E-09
  1 1 751  3.17097920E-09
  1 1 752  3.17097920E-09
  1 1 753  3.17097920E-09
  1 1 754  3.17097920E-09
  1 1 755  3.17097920E-09
  1 1 756  3.17097920E-09
  1 1 757  3.17097920E-09
  1 1 758  3.17097920E-09
  1 1 759  3.17097920E-09
  1 1 760  3.17097920E-09
  1 1 761  3.17097920E-09
  1 1 762  3.17097920E-09
  1 1 763  3.17097920E-09
  1 1 764  3.17097920E-09
  1 1 765  3.17097920E-09
  1 1 766  3.17097920E-09
  1 1 767  3.17097920E-09
  1 1 768  3.17097920E-09
  1 1 769  3.17097920E-09
  1 1 770  3.17097920E-09
  1 1 771  3.17097920E-09
  1 1 772  3.17097920E-09
  1 1 773  3.17097920E-09
  1 1 774  3.17097920E-09
  1 1 775  3.17097920E-09
  1 1 776  3.17097920E-09
  1 1 777  3.17097920E-09
  1 1 778  3.17097920E-09
  1 1 779  3.17097920E-09
  1 1 780  3.17097920E-09
  1 1 781  3.17097920E-09
  1 1 782  3.17097920E-09
  1 1 783  3.17097920E-09
  1 1 784  3.17097920E-09
  1 1 785  3.17097920E-09
  1 1 786  3.17097920E-09
  1 1 787  3.17097920E-09
  1 1 788  3.17097920E-09
  1 1 789  3.17097920E-09
  1 1 790  3.17097920E-09
  1 1 791  3.17097920E-09
  1 1 792  3.17097920E-09
  1 1 793  3.17097920E-09
  1 1 794  3.17097920E-09
  1 1 795  3.17097920E-09
  1 1 796  3.17097920E-09
  1 1 797  3.17097920E-09
  1 1 798  3.17097920E-09
  1 1 799  3.17097920E-09
  1 1 800  3.17097920E-09
  1 1 801  3.17097920E-09
  1 1 802  3.17097920E-09
  1 1 803  3.17097920E-09
  1 1 804  3.17097920E-09
  1 1 805  3.17097920E-09
  1 1 806  3.17097920E-09
  1 1 807  3.17097920E-09
  1 1 808  3.17097920E-09
  1 1 809  3.17097920E-09
  1 1 810  3.17097920E-09
  1 1 811  3.17097920E-09
  1 1 812  3.17097920E-09
  1 1 813  3.17097920E-09
  1 1 814  3.17097920E-09
  1 1 815  3.17097920E-09
  1 1 816  3.17097920E-09
  1 1 817  3.17097920E-09
  1 1 818  3.17097920E-09
  1 1 819  3.17097920E-09
  1 1 820  3.17097920E-09
  1 1 821  3.17097920E-09
  1 1 822  3.17097920E-09
  1 1 823  3.17097920E-09
  1 1 824  3.17097920E-09
  1 1 825  3.17097920E-09
  1 1 826  3.17097920E-09
  1 1 827  3.17097920E-09
  1 1 828  3.17097920E-09
  1 1 829  3.17097920E-09
  1 1 830  3.17097920E-09
  1 1 831  3.17097920E-09
  1 1 832  3.17097920E-09
  1 1 833  3.17097920E-09
  1 1 834  3.17097920E-09
  1 1 835  3.17097920E-09
  1 1 836  3.17097920E-09
  1 1 837  3.17097920E-09
  1 1 838  3.17097920E-09
  1 1 839  3.17097920E-09
  1 1 840  3.17097920E-09
  1 1 841  3.17097920E-09
  1 1 842  3.17097920E-09
  1 1 843  3.17097920E-09
  1 1 844  3.17097920E-09
  1 1 845  3.17097920E-09
  1 1 846  3.17097920E-09
  1 1 847  3.17097920E-09
  1 1 848  3.17097920E-09
  1 1 849  3.17097920E-09
  1 1 850  3.17097920E-09
  1 1 851  3.17097920E-09
  1 1 852  3.17097920E-09
  1 1 853  3.17097920E-09
  1 1 854  3.17097920E-09
  1 1 855  3.17097920E-09
  1 1 856  3.17097920E-09
  1 1 857  3.17097920E-09
  1 1 858  3.17097920E-09
  1 1 859  3.17097920E-09
  1 1 860  3.17097920E-09
  1 1 861  3.17097920E-09
  1 1 862  3.17097920E-09
  1 1 863  3.17097920E-09
  1 1 864  3.17097920E-09
  1 1 865  3.17097920E-09
  1 1 866  3.17097920E-09
  1 1 867  3.17097920E-09
  1 1 868  3.17097920E-09
  1 1 869  3.17097920E-09
  1 1 870  3.17097920E-09
  1 1 871  3.17097920E-09
  1 1 872  3.17097920E-09
  1 1 873  3.17097920E-09
  1 1 874  3.17097920E-09
  1 1 875  3.17097920E-09
  1 1 876  3.17097920E-09
  1 1 877  3.17097920E-09
  1 1 878  3.17097920E-09
  1 1 879  3.17097920E-09
  1 1 880  3.17097920E-09
  1 1 881  3.17097920E-09
  1 1 882  3.17097920E-09
  1 1 883  3.17097920E-09
  1 1 884  3.17097920E-09
  1 1 885  3.17097920E-09
  1 1 886  3.17097920E-09
  1 1 887  3.17097920E-09
  1 1 888  3.17097920E-09
  1 1 889  3.17097920E-09
  1 1 890  3.17097920E-09
  1 1 891  3.17097920E-09
  1 1 892  3.17097920E-09
  1 1 893  3.17097920E-09
  1 1 894  3.17097920E-09
  1 1 895  3.17097920E-09
  1 1 896  3.17097920E-09
  1 1 897  3.17097920E-09
  1 1 898  3.17097920E-09
  1 1 899  3.17097920E-09
  1 1 900  3.17097920E-09
  1 1 901  3.17097920E-09
  1 1 902  3.17097920E-09
  1 1 903  3.17097920E-09
  1 1 904  3.17097920E-09
  1 1 905  3.17097920E-09
  1 1 906  3.17097920E-09
  1 1 907  3.17097920E-09
  1 1 908  3.17097920E-09
  1 1 909  3.17097920E-09
  1 1 910  3.17097920E-09
  1 1 911  3.17097920E-09
  1 1 912  3.17097920E-09
  1 1 913  3.17097920E-09
  1 1 914  3.17097920E-09
  1 1 915  3.17097920E-09
  1 1 916  3.17097920E-09
  1 1 917  3.17097920E-09
  1 1 918  3.17097920E-09
  1 1 919  3.17097920E-09
  1 1 920  3.17097920E-09
  1 1 921  3.17097920E-09
  1 1 922  3.17097920E-09
  1 1 923  3.17097920E-09
  1 1 924  3.17097920E-09
  1 1 925  3.17097920E-09
  1 1 926  3.17097920E-09
  1 1 927  3.17097920E-09
  1 1 928  3.17097920E-09
  1 1 929  3.17097920E-09
  1 1 930  3.17097920E-09
  1 1 931  3.17097920E-09
  1 1 932  3.17097920E-09
  1 1 933  3.17097920E-09
  1 1 934  3.17097920E-09
  1 1 935  3.17097920E-09
  1 1 936  3.17097920E-09
  1 1 937  3.17097920E-09
  1 1 938  3.17097920E-09
  1 1 939  3.17097920E-09
  1 1 940  3.17097920E-09
  1 1 941  3.17097920E-09
  1 1 942  3.17097920E-09
  1 1 943  3.17097920E-09
  1 1 944  3.17097920E-09
  1 1 945  3.17097920E-09
  1 1 946  3.17097920E-09
  1 1 947  3.17097920E-09
  1 1 948  3.17097920E-09
  1 1 949  3.17097920E-09
  1 1 950  3.17097920E-09
  1 1 951  3.17097920E-09
  1 1 952  3.17097920E-09
  1 1 953  3.17097920E-09
  1 1 954  3.17097920E-09
  1 1 955  3.17097920E-09
  1 1 956  3.17097920E-09
  1 1 957  3.17097920E-09
  1 1 958  3.17097920E-09
  1 1 959  3.17097920E-09
  1 1 960  3.17097920E-09
  1 1 961  3.17097920E-09
  1 1 962  3.17097920E-09
  1 1 963  3.17097920E-09
  1 1 964  3.17097920E-09
  1 1 965  3.17097920E-09
  1 1 966  3.17097920E-09
  1 1 967  3.17097920E-09
  1 1 968  3.17097920E-09
  1 1 969  3.17097920E-09
  1 1 970  3.17097920E-09
  1 1 971  3.17097920E-09
  1 1 972  3.17097920E-09
  1 1 973  3.17097920E-09
  1 1 974  3.17097920E-09
  1 1 975  3.17097920E-09
  1 1 976  3.17097920E-09
  1 1 977  3.17097920E-09
  1 1 978  3.17097920E-09
  1 1 979  3.17097920E-09
  1 1 980  3.17097920E-09
  1 1 981  3.17097920E-09
  1 1 982  3.17097920E-09
  1 1 983  3.17097920E-09
  1 1 984  3.17097920E-09
  1 1 985  3.17097920E-09
  1 1 986  3.17097920E-09
  1 1 987  3.17097920E-09
  1 1 988  3.17097920E-09
  1 1 989  3.17097920E-09
  1 1 990  3.17097920E-09
  1 1 991  3.17097920E-09
  1 1 992  3.17097920E-09
  1 1 993  3.17097920E-09
  1 1 994  3.17097920E-09
  1 1 995  3.17097920E-09
  1 1 996  3.17097920E-09
  1 1 997  3.17097920E-09
  1 1 998  3.17097920E-09
  1 1 999  3.17097920E-09
  1 1 1000  3.17097920E-09
  2 1 1  3.17097920E-09
  2 1 2  3.17097920E-09
  2 1 3  3.17097920E-09
  2 1 4  3.17097920E-09
  2 1 5  3.17097920E-09
  2 1 6  3.17097920E-09
  2 1 7  3.17097920E-09
  2 1 8  3.17097920E-09
  2 1 9  3.17097920E-09
  2 1 10  3.17097920E-09
  2 1 11  3.17097920E-09
  2 1 12  3.17097920E-09
  2 1 13  3.17097920E-09
  2 1 14  3.17097920E-09
  2 1 15  3.17097920E-09
  2 1 16  3.17097920E-09
  2 1 17  3.17097920E-09
  2 1 18  3.17097920E-09
  2 1 19  3.17097920E-09
  2 1 20  3.17097920E-09
  2 1 21  3.17097920E-09
  2 1 22  3.17097920E-09
  2 1 23  3.17097920E-09
  2 1 24  3.17097920E-09
  2 1 25  3.17097920E-09
  2 1 26  3.17097920E-09
  2 1 27  3.17097920E-09
  2 1 28  3.17097920E-09
  2 1 29  3.17097920E-09
  2 1 30  3.17097920E-09
  2 1 31  3.17097920E-09
  2 1 32  3.17097920E-09
  2 1 33  3.17097920E-09
  2 1 34  3.17097920E-09
  2 1 35  3.17097920E-09
  2 1 36  3.17097920E-09
  2 1 37  3.17097920E-09
  2 1 38  3.17097920E-09
  2 1 39  3.17097920E-09
  2 1 40  3.17097920E-09
  2 1 41  3.17097920E-09
  2 1 42  3.17097920E-09
  2 1 43  3.17097920E-09
  2 1 44  3.17097920E-09
  2 1 45  3.17097920E-09
  2 1 46  3.17097920E-09
  2 1 47  3.17097920E-09
  2 1 48  3.17097920E-09
  2 1 49  3.17097920E-09
  2 1 50  3.17097920E-09
  2 1 51  3.17097920E-09
  2 1 52  3.17097920E-09
  2 1 53  3.17097920E-09
  2 1 54  3.17097920E-09
  2 1 55  3.17097920E-09
  2 1 56  3.17097920E-09
  2 1 57  3.17097920E-09
  2 1 58  3.17097920E-09
  2 1 59  3.17097920E-09
  2 1 60  3.17097920E-09
  2 1 61  3.17097920E-09
  2 1 62  3.17097920E-09
  2 1 63  3.17097920E-09
  2 1 64  3.17097920E-09
  2 1 65  3.17097920E-09
  2 1 66  3.17097920E-09
  2 1 67  3.17097920E-09
  2 1 68  3.17097920E-09
  2 1 69  3.17097920E-09
  2 1 70  3.17097920E-09
  2 1 71  3.17097920E-09
  2 1 72  3.17097920E-09
  2 1 73  3.17097920E-09
  2 1 74  3.17097920E-09
  2 1 75  3.17097920E-09
  2 1 76  3.17097920E-09
  2 1 77  3.17097920E-09
  2 1 78  3.17097920E-09
  2 1 79  3.17097920E-09
  2 1 80  3.17097920E-09
  2 1 81  3.17097920E-09
  2 1 82  3.17097920E-09
  2 1 83  3.17097920E-09
  2 1 84  3.17097920E-09
  2 1 85  3.17097920E-09
  2 1 86  3.17097920E-09
  2 1 87  3.17097920E-09
  2 1 88  3.17097920E-09
  2 1 89  3.17097920E-09
  2 1 90  3.17097920E-09
  2 1 91  3.17097920E-09
  2 1 92  3.17097920E-09
  2 1 93  3.17097920E-09
  2 1 94  3.17097920E-09
  2 1 95  3.17097920E-09
  2 1 96  3.17097920E-09
  2 1 97  3.17097920E-09
  2 1 98  3.17097920E-09
  2 1 99  3.17097920E-09
  2 1 100  3.17097920E-09
  2 1 101  3.17097920E-09
  2 1 102  3.17097920E-09
  2 1 103  3.17097920E-09
  2 1 104  3.17097920E-09
  2 1 105  3.17097920E-09
  2 1 106  3.17097920E-09
  2 1 107  3.17097920E-09
  2 1 108  3.17097920E-09
  2 1 109  3.17097920E-09
  2 1 110  3.17097920E-09
  2 1 111  3.17097920E-09
  2 1 112  3.17097920E-09
  2 1 113  3.17097920E-09
  2 1 114  3.17097920E-09
  2 1 115  3.17097920E-09
  2 1 116  3.17097920E-09
  2 1 117  3.17097920E-09
  2 1 118  3.17097920E-09
  2 1 119  3.17097920E-09
  2 1 120  3.17097920E-09
  2 1 121  3.17097920E-09
  2 1 122  3.17097920E-09
  2 1 123  3.17097920E-09
  2 1 124  3.17097920E-09
  2 1 125  3.17097920E-09
  2 1 126  3.17097920E-09
  2 1 127  3.17097920E-09
  2 1 128  3.17097920E-09
  2 1 129  3.17097920E-09
  2 1 130  3.17097920E-09
  2 1 131  3.17097920E-09
  2 1 132  3.17097920E-09
  2 1 133  3.17097920E-09
  2 1 134  3.17097920E-09
  2 1 135  3.17097920E-09
  2 1 136  3.17097920E-09
  2 1 137  3.17097920E-09
  2 1 138  3.17097920E-09
  2 1 139  3.17097920E-09
  2 1 140  3.17097920E-09
  2 1 141  3.17097920E-09
  2 1 142  3.17097920E-09
  2 1 143  3.17097920E-09
  2 1 144  3.17097920E-09
  2 1 145  3.17097920E-09
  2 1 146  3.17097920E-09
  2 1 147  3.17097920E-09
  2 1 148  3.17097920E-09
  2 1 149  3.17097920E-09
  2 1 150  3.17097920E-09
  2 1 151  3.17097920E-09
  2 1 152  3.17097920E-09
  2 1 153  3.17097920E-09
  2 1 154  3.17097920E-09
  2 1 155  3.17097920E-09