# File generated by Flopy version 3.3.2 on 12/08/2020 at 15:45:54.
BEGIN options
END options

BEGIN dimensions
  NPER  1
END dimensions

BEGIN perioddata
       1.00000000  1       1.00000000
END perioddata

