# File generated by Flopy version 3.3.2 on 12/08/2020 at 15:45:54.
BEGIN options
  NEWTON  UNDER_RELAXATION
END options

BEGIN packages
  DIS6  benchmark_mf6.dis  dis
  IC6  benchmark_mf6.ic  ic
  NPF6  benchmark_mf6.npf  npf
  RCH6  benchmark_mf6.rch  rch
  CHD6  benchmark_mf6.chd  chd
  OC6  benchmark_mf6.oc  oc
END packages

