# File generated by Flopy version 3.3.2 on 12/08/2020 at 15:45:54.
BEGIN options
  SAVE_FLOWS
END options

BEGIN griddata
  icelltype
    CONSTANT  1
  k  LAYERED
    CONSTANT       0.00100000
    CONSTANT  1.00000000E-05
  k33  LAYERED
    CONSTANT  1.00000000E-04
    CONSTANT  1.00000000E-06
  wetdry
    CONSTANT      -1.00000000
END griddata

