# File generated by Flopy version 3.3.2 on 12/08/2020 at 15:45:54.
BEGIN options
  SAVE_FLOWS
END options

BEGIN dimensions
  MAXBOUND  2
END dimensions

BEGIN period  1
  1 1 1000      15.00000000
  2 1 1000      15.00000000
END period  1

