# File generated by Flopy version 3.3.2 on 12/08/2020 at 15:45:54.
BEGIN options
  BUDGET  FILEOUT  benchmark_mf6.cbb
  HEAD  FILEOUT  benchmark_mf6.hds
END options

BEGIN period  1
  SAVE  HEAD  ALL
  SAVE  BUDGET  ALL
  PRINT  HEAD  LAST
END period  1

