# File generated by Flopy version 3.3.2 on 12/08/2020 at 15:45:54.
BEGIN options
END options

BEGIN timing
  TDIS6  benchmark_mf6.tdis
END timing

BEGIN models
  gwf6  benchmark_mf6.nam  benchmark_mf6
END models

BEGIN exchanges
END exchanges

BEGIN solutiongroup  1
  ims6  benchmark_mf6.ims  benchmark_mf6
END solutiongroup  1

